LTspice 24.0.12 for Windows
Circuit: * D:\Documents\Code\eurorack\AK4458VN_breakout\LTSpice\Output stage for 20pp.asc
Start Time: Sun Oct 20 19:28:39 2024
solver = Normal
Maximum thread count: 24
tnom = 27
temp = 27
method = modified trap
.OP point found by inspection.
Ignoring empty pin current: Ix(u1:1)
Ignoring empty pin current: Ix(u1:2)
Ignoring empty pin current: Ix(u1:1)
Ignoring empty pin current: Ix(u1:2)
Total elapsed time: 0.189 seconds.

